*version 9.1 282343316
u 482
U? 6
DSTM? 9
? 18
@libraries
@analysis
.TRAN 1 0 0 0
+0 0ns
+1 10us
@targets
@attributes
@translators
a 0 u 13 0 0 0 hln 100 PCBOARDS=PCB
a 0 u 13 0 0 0 hln 100 PSPICE=PSPICE
a 0 u 13 0 0 0 hln 100 XILINX=XILINX
@setup
unconnectedPins 0
connectViaLabel 0
connectViaLocalLabels 0
NoStim4ExtIFPortsWarnings 1
AutoGenStim4ExtIFPorts 1
@index
pageloc 1 0 9162 
@status
n 0 110:10:22:15:33:28;1290436408 e 
s 0 110:10:22:15:33:33;1290436413 e 
c 110:10:22:15:40:41;1290436841
*page 1 0 970 720 iA
@ports
port 6 Hi 580 180 d
port 7 Hi 810 180 d
port 8 Hi 810 260 v
port 9 Hi 580 260 v
port 135 LO 640 180 h
port 5 Hi 390 180 d
port 10 Hi 390 260 v
port 134 LO 100 180 h
@parts
part 193 STIM1 10 230 d
a 0 a 0:13 0 0 0 hln 100 PKGREF=DSTM8
a 0 ap 9 0 1 -2 hln 100 REFDES=DSTM8
part 4 7474 780 210 h
a 0 sp 11 0 40 80 hln 100 PART=7474
a 0 s 0:13 0 0 0 hln 100 PKGTYPE=DIP14
a 0 s 0:13 0 0 0 hln 100 GATE=A
a 0 a 0:13 0 0 0 hln 100 PKGREF=U3
a 0 ap 9 0 40 8 hln 100 REFDES=U3A
part 192 STIM1 670 60 d
a 0 a 0:13 0 0 0 hln 100 PKGREF=DSTM7
a 0 ap 9 0 1 -2 hln 100 REFDES=DSTM7
part 169 STIM1 120 60 d
a 0 a 0:13 0 0 0 hln 100 PKGREF=DSTM6
a 0 ap 9 0 1 -2 hln 100 REFDES=DSTM6
a 0 u 0 0 0 80 hln 100 COMMAND1=0s 0
part 168 STIM1 90 60 d
a 0 a 0:13 0 0 0 hln 100 PKGREF=DSTM5
a 0 ap 9 0 1 -2 hln 100 REFDES=DSTM5
a 0 u 0 0 0 80 hln 100 COMMAND1=0s 1
part 167 STIM1 70 60 d
a 0 a 0:13 0 0 0 hln 100 PKGREF=DSTM4
a 0 ap 9 0 1 -2 hln 100 REFDES=DSTM4
a 0 u 0 0 0 90 hln 100 COMMAND2=5us 1
part 148 DigClock 340 100 d
a 0 a 0:13 0 0 0 hln 100 PKGREF=DSTM1
a 1 ap 9 0 0 -2 hln 100 REFDES=DSTM1
a 0 u 0 0 0 20 hln 100 ONTIME=2uS
a 0 u 0 0 0 30 hln 100 OFFTIME=2uS
part 12 74153 680 160 h
a 0 sp 11 0 16 160 hln 100 PART=74153
a 0 s 0:13 0 0 0 hln 100 PKGTYPE=DIP16
a 0 s 0:13 0 0 0 hln 100 GATE=
a 0 a 0:13 0 0 0 hln 100 PKGREF=U5
a 1 ap 9 0 40 -2 hln 100 REFDES=U5
part 3 7474 550 210 h
a 0 sp 11 0 40 80 hln 100 PART=7474
a 0 s 0:13 0 0 0 hln 100 PKGTYPE=DIP14
a 0 s 0:13 0 0 0 hln 100 GATE=A
a 0 a 0:13 0 0 0 hln 100 PKGREF=U2
a 0 ap 9 0 40 8 hln 100 REFDES=U2A
part 2 7474 360 210 h
a 0 sp 11 0 40 80 hln 100 PART=7474
a 0 s 0:13 0 0 0 hln 100 PKGTYPE=DIP14
a 0 s 0:13 0 0 0 hln 100 GATE=A
a 0 a 0:13 0 0 0 hln 100 PKGREF=U1
a 0 ap 9 0 40 8 hln 100 REFDES=U1A
part 166 STIM1 50 60 d
a 0 a 0:13 0 0 0 hln 100 PKGREF=DSTM3
a 0 ap 9 0 1 -2 hln 100 REFDES=DSTM3
part 165 STIM1 30 60 d
a 0 a 0:13 0 0 0 hln 100 PKGREF=DSTM2
a 0 ap 9 0 1 -2 hln 100 REFDES=DSTM2
part 11 74153 250 160 h
a 0 sp 11 0 16 160 hln 100 PART=74153
a 0 s 0:13 0 0 0 hln 100 PKGTYPE=DIP16
a 0 s 0:13 0 0 0 hln 100 GATE=
a 0 a 0:13 0 0 0 hln 100 PKGREF=U4
a 1 ap 9 0 40 -2 hln 100 REFDES=U4
part 1 titleblk 970 720 h
a 1 s 13 0 350 10 hcn 100 PAGESIZE=A
a 1 s 13 0 180 60 hcn 100 PAGETITLE=
a 1 s 13 0 340 95 hrn 100 PAGECOUNT=1
a 1 s 13 0 300 95 hrn 100 PAGENO=1
part 188 nodeMarker 670 80 h
a 0 s 0 0 0 0 hln 100 PROBEVAR=
a 0 s 0 0 0 0 hln 100 PROBEVAR=Serie_droite
a 0 a 0 0 4 22 hlb 100 LABEL=10
part 190 nodeMarker 870 210 h
a 0 s 0 0 0 0 hln 100 PROBEVAR=
a 0 s 0 0 0 0 hln 100 PROBEVAR=Q2
a 0 a 0 0 4 22 hlb 100 LABEL=11
part 180 nodeMarker 340 110 h
a 0 s 0 0 0 0 hln 100 PROBEVAR=DSTM1:1
a 0 s 0 0 0 0 hln 100 PROBEVAR=DSTM1:1
a 0 a 0 0 4 22 hlb 100 LABEL=6
part 182 nodeMarker 20 230 h
a 0 s 0 0 0 0 hln 100 PROBEVAR=Serie_gauche
a 0 s 0 0 0 0 hln 100 PROBEVAR=
a 0 a 0 0 4 22 hlb 100 LABEL=7
part 186 nodeMarker 620 210 h
a 0 s 0 0 0 0 hln 100 PROBEVAR=
a 0 s 0 0 0 0 hln 100 PROBEVAR=Q1
a 0 a 0 0 4 22 hlb 100 LABEL=9
part 184 nodeMarker 450 210 h
a 0 s 0 0 0 0 hln 100 PROBEVAR=Q0
a 0 s 0 0 0 0 hln 100 PROBEVAR=Q0
a 0 a 0 0 4 22 hlb 100 LABEL=8
part 472 nodeMarker 30 80 h
a 0 s 0 0 0 0 hln 100 PROBEVAR=
a 0 a 0 0 4 22 hlb 100 LABEL=13
part 474 nodeMarker 50 80 h
a 0 s 0 0 0 0 hln 100 PROBEVAR=
a 0 a 0 0 4 22 hlb 100 LABEL=14
part 476 nodeMarker 70 80 h
a 0 s 0 0 0 0 hln 100 PROBEVAR=
a 0 a 0 0 4 22 hlb 100 LABEL=15
part 478 nodeMarker 90 80 h
a 0 s 0 0 0 0 hln 100 PROBEVAR=
a 0 a 0 0 4 22 hlb 100 LABEL=16
part 480 nodeMarker 120 80 h
a 0 s 0 0 0 0 hln 100 PROBEVAR=
a 0 a 0 0 4 22 hlb 100 LABEL=17
@conn
w 118
a 0 sr 0 0 0 0 hln 100 LABEL=Serie_droite
a 0 up 0:33 0 0 0 hln 100 LVL=
s 670 210 670 80 119
a 0 sr 3 0 672 135 hln 100 LABEL=Serie_droite
a 0 up 33 0 672 136 hlt 100 LVL=
s 670 80 670 60 189
s 680 210 670 210 117
w 145
a 0 up 0:33 0 0 0 hln 100 LVL=
s 640 190 680 190 146
a 0 up 33 0 660 189 hct 100 LVL=
s 640 180 640 190 144
w 60
a 0 up 0:33 0 0 0 hln 100 LVL=
s 740 210 780 210 59
a 0 up 33 0 760 209 hct 100 LVL=
w 377
a 0 up 0:33 0 0 0 hln 100 LVL=
s 530 100 340 100 227
s 760 100 530 100 163
a 0 up 33 0 260 99 hct 100 LVL=
s 530 100 530 230 155
s 760 230 760 100 161
s 530 230 550 230 157
s 780 230 760 230 159
s 340 110 340 230 181
s 340 230 360 230 151
s 340 100 340 110 149
w 14
a 0 sr 0:3 0 130 228 hcn 100 LABEL=Serie_gauche
a 0 up 0:33 0 0 0 hln 100 LVL=
s 250 230 20 230 13
a 0 sr 3 0 130 228 hcn 100 LABEL=Serie_gauche
a 0 up 33 0 130 229 hct 100 LVL=
s 20 230 10 230 183
w 108
a 0 up 0:33 0 0 0 hln 100 LVL=
a 0 sr 0:3 0 880 208 hcn 100 LABEL=Q2
s 870 210 920 210 191
a 0 sr 3 0 880 208 hcn 100 LABEL=Q2
s 10 360 10 270 129
s 920 360 10 360 127
a 0 up 33 0 465 359 hct 100 LVL=
s 660 200 680 200 115
s 660 120 660 200 113
s 920 120 660 120 111
s 920 360 920 210 109
s 840 210 870 210 107
s 920 210 920 120 216
s 10 270 250 270 131
w 34
a 0 up 0:33 0 0 0 hln 100 LVL=
s 310 210 360 210 429
a 0 up 33 0 310 209 hct 100 LVL=
w 194
a 0 up 0:33 0 0 0 hln 100 LVL=
s 500 210 550 210 43
s 500 210 500 270 447
s 500 270 310 270 449
w 261
a 0 up 0:33 0 0 0 hln 100 LVL=
s 200 190 200 250 140
a 0 up 33 0 202 220 hlt 100 LVL=
s 210 190 200 190 138
s 210 180 210 190 136
s 200 250 250 250 142
s 210 190 250 190 392
s 210 180 100 180 239
w 54
a 0 up 0:33 0 0 0 hln 100 LVL=
a 0 sr 0:3 0 620 208 hcn 100 LABEL=Q1
s 620 210 630 210 187
a 0 sr 3 0 620 208 hcn 100 LABEL=Q1
s 90 210 250 210 123
s 90 260 250 260 456
s 90 260 90 210 432
s 630 230 630 340 99
s 630 230 680 230 57
s 630 210 630 230 55
s 610 210 620 210 53
s 630 340 90 340 101
a 0 up 33 0 360 339 hct 100 LVL=
s 90 340 90 260 103
w 16
a 0 up 0:33 0 0 0 hln 100 LVL=
a 0 sr 0:3 0 435 208 hcn 100 LABEL=Q0
s 420 210 450 210 379
a 0 sr 3 0 435 208 hcn 100 LABEL=Q0
s 470 210 470 350 17
s 450 210 470 210 380
s 410 210 420 210 185
s 470 350 70 350 19
a 0 up 33 0 270 349 hct 100 LVL=
s 70 290 250 290 466
s 70 350 70 290 21
s 70 200 250 200 97
s 70 290 70 200 442
w 26
a 0 sr 0 0 0 0 hln 100 LABEL=P0
a 0 up 0:33 0 0 0 hln 100 LVL=
s 30 220 30 80 171
a 0 up 33 0 32 141 hlt 100 LVL=
a 0 sr 3 0 32 140 hln 100 LABEL=P0
s 250 220 30 220 25
s 30 80 30 60 473
w 30
a 0 sr 0 0 0 0 hln 100 LABEL=P1
a 0 up 0:33 0 0 0 hln 100 LVL=
s 50 280 50 80 173
a 0 up 33 0 52 171 hlt 100 LVL=
a 0 sr 3 0 52 170 hln 100 LABEL=P1
s 250 280 50 280 29
s 50 80 50 60 475
w 195
a 0 up 0:33 0 0 0 hln 100 LVL=
a 0 sr 0:3 0 72 90 hln 100 LABEL=P2
s 70 80 70 120 477
a 0 sr 3 0 72 90 hln 100 LABEL=P2
s 70 60 70 80 45
a 0 up 33 0 72 91 hlt 100 LVL=
s 650 220 680 220 51
s 650 120 650 220 49
s 70 120 650 120 47
w 196
a 0 sr 0:3 0 92 95 hln 100 LABEL=S1
a 0 up 0:33 0 0 0 hln 100 LVL=
s 90 130 90 80 177
a 0 sr 3 0 92 95 hln 100 LABEL=S1
s 640 170 680 170 76
s 640 130 640 170 74
s 90 130 640 130 302
s 90 170 90 130 88
a 0 up 33 0 92 96 hlt 100 LVL=
s 250 170 90 170 61
s 90 80 90 60 479
w 276
a 0 up 0:33 0 0 0 hln 100 LVL=
a 0 sr 0:3 0 122 100 hln 100 LABEL=S0
s 120 140 120 80 288
a 0 sr 3 0 122 100 hln 100 LABEL=S0
s 200 140 620 140 82
s 200 160 200 140 90
a 0 up 33 0 202 101 hlt 100 LVL=
s 620 140 620 160 84
s 620 160 680 160 86
s 120 140 200 140 280
s 250 160 200 160 78
s 120 80 120 60 481
@junction
j 580 180
+ p 3 \PRE\
+ s 6
j 580 260
+ p 3 \CLR\
+ s 9
j 810 180
+ p 4 \PRE\
+ s 7
j 810 260
+ p 4 \CLR\
+ s 8
j 670 60
+ p 192 pin1
+ w 118
j 670 80
+ p 188 pin1
+ w 118
j 640 180
+ s 135
+ w 145
j 780 210
+ p 4 D
+ w 60
j 70 60
+ p 167 pin1
+ w 195
j 680 210
+ p 12 I1A
+ w 118
j 680 220
+ p 12 I2A
+ w 195
j 680 190
+ p 12 \EA\
+ w 145
j 740 210
+ p 12 ZA
+ w 60
j 780 230
+ p 4 CLK
+ w 377
j 550 230
+ p 3 CLK
+ w 377
j 530 100
+ w 377
+ w 377
j 340 100
+ p 148 1
+ w 377
j 340 110
+ p 180 pin1
+ w 377
j 390 180
+ p 2 \PRE\
+ s 5
j 390 260
+ p 2 \CLR\
+ s 10
j 360 230
+ p 2 CLK
+ w 377
j 550 210
+ p 3 D
+ w 194
j 680 170
+ p 12 S1
+ w 196
j 90 60
+ p 168 pin1
+ w 196
j 90 130
+ w 196
+ w 196
j 680 160
+ p 12 S0
+ w 276
j 200 140
+ w 276
+ w 276
j 120 60
+ p 169 pin1
+ w 276
j 680 200
+ p 12 I0A
+ w 108
j 840 210
+ p 4 Q
+ w 108
j 870 210
+ p 190 pin1
+ w 108
j 920 210
+ w 108
+ w 108
j 630 230
+ w 54
+ w 54
j 20 230
+ p 182 pin1
+ w 14
j 10 230
+ p 193 pin1
+ w 14
j 250 230
+ p 11 I3A
+ w 14
j 250 260
+ p 11 I0B
+ w 54
j 250 270
+ p 11 I1B
+ w 108
j 250 250
+ p 11 \EB\
+ w 261
j 250 190
+ p 11 \EA\
+ w 261
j 210 190
+ w 261
+ w 261
j 250 160
+ p 11 S0
+ w 276
j 250 170
+ p 11 S1
+ w 196
j 250 290
+ p 11 I3B
+ w 16
j 310 210
+ p 11 ZA
+ w 34
j 360 210
+ p 2 D
+ w 34
j 310 270
+ p 11 ZB
+ w 194
j 100 180
+ s 134
+ w 261
j 250 210
+ p 11 I1A
+ w 54
j 680 230
+ p 12 I3A
+ w 54
j 610 210
+ p 3 Q
+ w 54
j 620 210
+ p 186 pin1
+ w 54
j 90 260
+ w 54
+ w 54
j 420 210
+ p 2 Q
+ w 16
j 450 210
+ p 184 pin1
+ w 16
j 250 200
+ p 11 I0A
+ w 16
j 70 290
+ w 16
+ w 16
j 50 60
+ p 166 pin1
+ w 30
j 250 280
+ p 11 I2B
+ w 30
j 30 60
+ p 165 pin1
+ w 26
j 250 220
+ p 11 I2A
+ w 26
j 30 80
+ p 472 pin1
+ w 26
j 50 80
+ p 474 pin1
+ w 30
j 70 80
+ p 476 pin1
+ w 195
j 90 80
+ p 478 pin1
+ w 196
j 120 80
+ p 480 pin1
+ w 276
@attributes
a 0 s 0:13 0 0 0 hln 100 PAGETITLE=
a 0 s 0:13 0 0 0 hln 100 PAGENO=1
a 0 s 0:13 0 0 0 hln 100 PAGESIZE=A
a 0 s 0:13 0 0 0 hln 100 PAGECOUNT=1
@graphics
