*version 9.1 4114496717
u 132
U? 11
DSTM? 4
? 7
@libraries
@analysis
.TRAN 1 0 0 0
+0 1us
+1 5ms
+3 1us
@targets
@attributes
@translators
a 0 u 13 0 0 0 hln 100 PCBOARDS=PCB
a 0 u 13 0 0 0 hln 100 PSPICE=PSPICE
a 0 u 13 0 0 0 hln 100 XILINX=XILINX
@setup
unconnectedPins 0
connectViaLabel 0
connectViaLocalLabels 0
NoStim4ExtIFPortsWarnings 1
AutoGenStim4ExtIFPorts 1
@index
pageloc 1 0 5911 
@status
n 0 118:00:22:08:52:45;1516607565 e 
s 0 118:00:22:08:52:45;1516607565 e 
*page 1 0 970 720 iA
@ports
@parts
part 7 7404 150 90 d
a 0 sp 11 0 40 40 hln 100 PART=7404
a 0 s 0:13 0 0 0 hln 100 PKGTYPE=DIP14
a 0 s 0:13 0 0 0 hln 100 GATE=A
a 0 a 0:13 0 0 0 hln 100 PKGREF=U2
a 0 ap 9 0 28 8 hln 100 REFDES=U2A
part 6 7404 80 90 d
a 0 sp 11 0 40 40 hln 100 PART=7404
a 0 s 0:13 0 0 0 hln 100 PKGTYPE=DIP14
a 0 s 0:13 0 0 0 hln 100 GATE=A
a 0 a 0:13 0 0 0 hln 100 PKGREF=U1
a 0 ap 9 0 28 8 hln 100 REFDES=U1A
part 90 STIM1 120 60 d
a 0 u 0 0 0 80 hln 100 COMMAND1=0s 1
a 0 a 0:13 0 0 0 hln 100 PKGREF=DSTM2
a 0 ap 9 0 1 -2 hln 100 REFDES=DSTM2
part 8 7408 200 150 h
a 0 sp 11 0 40 50 hln 100 PART=7408
a 0 s 0:13 0 0 0 hln 100 PKGTYPE=DIP14
a 0 s 0:13 0 0 0 hln 100 GATE=A
a 0 a 0:13 0 0 0 hln 100 PKGREF=U3
a 0 ap 9 0 40 0 hln 100 REFDES=U3A
part 9 7408 200 210 h
a 0 sp 11 0 40 50 hln 100 PART=7408
a 0 s 0:13 0 0 0 hln 100 PKGTYPE=DIP14
a 0 s 0:13 0 0 0 hln 100 GATE=A
a 0 a 0:13 0 0 0 hln 100 PKGREF=U4
a 0 ap 9 0 40 0 hln 100 REFDES=U4A
part 10 7408 200 270 h
a 0 sp 11 0 40 50 hln 100 PART=7408
a 0 s 0:13 0 0 0 hln 100 PKGTYPE=DIP14
a 0 s 0:13 0 0 0 hln 100 GATE=A
a 0 a 0:13 0 0 0 hln 100 PKGREF=U5
a 0 ap 9 0 40 0 hln 100 REFDES=U5A
part 11 7408 200 330 h
a 0 sp 11 0 40 50 hln 100 PART=7408
a 0 s 0:13 0 0 0 hln 100 PKGTYPE=DIP14
a 0 s 0:13 0 0 0 hln 100 GATE=A
a 0 a 0:13 0 0 0 hln 100 PKGREF=U6
a 0 ap 9 0 40 0 hln 100 REFDES=U6A
part 91 STIM1 290 70 d
a 0 u 0 0 0 90 hln 100 COMMAND2=1ms 1
a 0 u 0 0 0 100 hln 100 COMMAND3=2ms 0
a 0 u 0 0 0 110 hln 100 COMMAND4=3ms 1
a 0 a 0:13 0 0 0 hln 100 PKGREF=DSTM3
a 0 ap 9 0 1 -2 hln 100 REFDES=DSTM3
part 58 74126 300 340 h
a 0 sp 11 0 40 50 hln 100 PART=74126
a 0 s 0:13 0 0 0 hln 100 PKGTYPE=DIP14
a 0 s 0:13 0 0 0 hln 100 GATE=A
a 0 a 0:13 0 0 0 hln 100 PKGREF=U10
a 0 ap 9 0 40 0 hln 100 REFDES=U10A
part 57 74126 300 280 h
a 0 sp 11 0 40 50 hln 100 PART=74126
a 0 s 0:13 0 0 0 hln 100 PKGTYPE=DIP14
a 0 s 0:13 0 0 0 hln 100 GATE=A
a 0 a 0:13 0 0 0 hln 100 PKGREF=U9
a 0 ap 9 0 40 0 hln 100 REFDES=U9A
part 56 74126 300 220 h
a 0 sp 11 0 40 50 hln 100 PART=74126
a 0 s 0:13 0 0 0 hln 100 PKGTYPE=DIP14
a 0 s 0:13 0 0 0 hln 100 GATE=A
a 0 a 0:13 0 0 0 hln 100 PKGREF=U8
a 0 ap 9 0 40 0 hln 100 REFDES=U8A
part 55 74126 300 160 h
a 0 sp 11 0 40 50 hln 100 PART=74126
a 0 s 0:13 0 0 0 hln 100 PKGTYPE=DIP14
a 0 s 0:13 0 0 0 hln 100 GATE=A
a 0 a 0:13 0 0 0 hln 100 PKGREF=U7
a 0 ap 9 0 40 0 hln 100 REFDES=U7A
part 89 STIM1 50 60 d
a 0 a 0:13 0 0 0 hln 100 PKGREF=DSTM1
a 0 ap 9 0 1 -2 hln 100 REFDES=DSTM1
a 0 u 0 0 0 80 hln 100 COMMAND1=0s 1
part 1 titleblk 970 720 h
a 1 s 13 0 350 10 hcn 100 PAGESIZE=A
a 1 s 13 0 180 60 hcn 100 PAGETITLE=
a 1 s 13 0 300 95 hrn 100 PAGENO=1
a 1 s 13 0 340 95 hrn 100 PAGECOUNT=1
part 102 nodeMarker 120 70 h
a 0 s 0 0 0 0 hln 100 PROBEVAR=
a 0 a 0 0 4 22 hlb 100 LABEL=5
part 104 nodeMarker 50 70 h
a 0 s 0 0 0 0 hln 100 PROBEVAR=
a 0 a 0 0 4 22 hlb 100 LABEL=6
part 100 nodeMarker 350 310 h
a 0 s 0 0 0 0 hln 100 PROBEVAR=U9A:Y
a 0 a 0 0 4 22 hlb 100 LABEL=3
part 101 nodeMarker 350 370 h
a 0 s 0 0 0 0 hln 100 PROBEVAR=U10A:Y
a 0 a 0 0 4 22 hlb 100 LABEL=4
part 99 nodeMarker 350 250 h
a 0 s 0 0 0 0 hln 100 PROBEVAR=U8A:Y
a 0 a 0 0 4 22 hlb 100 LABEL=2
part 98 nodeMarker 350 190 h
a 0 s 0 0 0 0 hln 100 PROBEVAR=U7A:Y
a 0 a 0 0 4 22 hlb 100 LABEL=1
@conn
w 52
a 0 up 0:33 0 0 0 hln 100 LVL=
s 80 170 80 230 31
s 200 230 80 230 35
s 80 140 80 170 24
s 200 170 80 170 29
a 0 up 33 0 140 169 hct 100 LVL=
w 54
a 0 up 0:33 0 0 0 hln 100 LVL=
s 150 150 150 270 28
a 0 up 33 0 152 210 hlt 100 LVL=
s 200 270 150 270 38
s 150 140 150 150 22
s 200 150 150 150 26
w 53
a 0 up 0:33 0 0 0 hln 100 LVL=
s 120 210 120 330 34
s 200 330 120 330 44
s 120 80 120 210 19
a 0 up 33 0 122 145 hlt 100 LVL=
s 200 210 120 210 32
s 120 80 150 80 17
s 150 80 150 90 20
s 120 60 120 70 94
s 120 70 120 80 103
w 25
a 0 up 0:33 0 0 0 hln 100 LVL=
s 50 80 50 290 14
a 0 up 33 0 52 185 hlt 100 LVL=
s 50 80 80 80 12
s 80 80 80 90 15
s 50 290 50 350 43
s 200 290 50 290 41
s 200 350 50 350 47
s 50 60 50 70 96
s 50 70 50 80 105
w 112
a 0 up 0:33 0 0 0 hln 100 LVL=
s 270 160 300 160 111
a 0 up 33 0 285 159 hct 100 LVL=
w 114
a 0 up 0:33 0 0 0 hln 100 LVL=
s 270 220 300 220 113
a 0 up 33 0 285 219 hct 100 LVL=
w 116
a 0 up 0:33 0 0 0 hln 100 LVL=
s 300 280 270 280 115
a 0 up 33 0 285 279 hct 100 LVL=
w 118
a 0 up 0:33 0 0 0 hln 100 LVL=
s 300 340 270 340 117
a 0 up 33 0 285 339 hct 100 LVL=
w 120
a 0 up 0:33 0 0 0 hln 100 LVL=
s 290 70 290 190 119
a 0 up 33 0 292 130 hlt 100 LVL=
s 290 370 300 370 121
s 290 310 290 370 125
s 300 310 290 310 123
s 290 250 290 310 128
s 300 250 290 250 126
s 290 190 290 250 131
s 300 190 290 190 129
@junction
j 50 80
+ w 25
+ w 25
j 120 80
+ w 53
+ w 53
j 80 140
+ p 6 Y
+ w 52
j 150 150
+ w 54
+ w 54
j 200 170
+ p 8 B
+ w 52
j 80 170
+ w 52
+ w 52
j 120 210
+ w 53
+ w 53
j 200 230
+ p 9 B
+ w 52
j 50 290
+ w 25
+ w 25
j 150 140
+ p 7 Y
+ w 54
j 200 150
+ p 8 A
+ w 54
j 200 270
+ p 10 A
+ w 54
j 80 90
+ p 6 A
+ w 25
j 200 290
+ p 10 B
+ w 25
j 150 90
+ p 7 A
+ w 53
j 200 210
+ p 9 A
+ w 53
j 200 330
+ p 11 A
+ w 53
j 200 350
+ p 11 B
+ w 25
j 120 60
+ p 90 pin1
+ w 53
j 50 60
+ p 89 pin1
+ w 25
j 120 70
+ p 102 pin1
+ w 53
j 50 70
+ p 104 pin1
+ w 25
j 350 190
+ p 55 Y
+ p 98 pin1
j 350 250
+ p 56 Y
+ p 99 pin1
j 350 310
+ p 57 Y
+ p 100 pin1
j 350 370
+ p 58 Y
+ p 101 pin1
j 270 160
+ p 8 Y
+ w 112
j 300 160
+ p 55 G
+ w 112
j 270 220
+ p 9 Y
+ w 114
j 300 220
+ p 56 G
+ w 114
j 270 280
+ p 10 Y
+ w 116
j 300 280
+ p 57 G
+ w 116
j 270 340
+ p 11 Y
+ w 118
j 300 340
+ p 58 G
+ w 118
j 290 70
+ p 91 pin1
+ w 120
j 300 370
+ p 58 A
+ w 120
j 300 310
+ p 57 A
+ w 120
j 290 310
+ w 120
+ w 120
j 300 250
+ p 56 A
+ w 120
j 290 250
+ w 120
+ w 120
j 300 190
+ p 55 A
+ w 120
j 290 190
+ w 120
+ w 120
@attributes
a 0 s 0:13 0 0 0 hln 100 PAGETITLE=
a 0 s 0:13 0 0 0 hln 100 PAGENO=1
a 0 s 0:13 0 0 0 hln 100 PAGESIZE=A
a 0 s 0:13 0 0 0 hln 100 PAGECOUNT=1
@graphics
